Version 4
SHEET 1 988 680
WIRE 128 32 0 32
WIRE 288 32 208 32
WIRE 368 48 320 48
WIRE 320 64 320 48
WIRE 320 64 192 64
WIRE 0 96 0 32
WIRE 176 96 128 96
WIRE 64 128 64 96
WIRE 160 128 64 128
WIRE 176 128 176 96
WIRE 192 128 192 64
WIRE 0 144 0 96
WIRE 144 144 0 144
WIRE 288 160 288 32
WIRE 288 160 208 160
WIRE 144 176 80 176
WIRE 368 192 176 192
WIRE 80 224 80 176
WIRE 144 224 80 224
WIRE 80 240 80 224
WIRE 368 240 368 192
WIRE 144 256 144 224
WIRE 288 256 288 160
WIRE 288 256 208 256
FLAG 0 208 0
FLAG 80 320 0
FLAG 368 128 0
FLAG 368 320 0
FLAG 0 96 VC
FLAG 288 160 Vo
FLAG 80 224 VR
SYMBOL Opamps\\LM108A 176 96 R0
SYMATTR InstName U1
SYMBOL voltage 368 32 R0
WINDOW 123 0 0 Left 0
WINDOW 39 0 0 Left 0
SYMATTR InstName V1
SYMATTR Value 15
SYMBOL voltage 368 224 R0
WINDOW 123 0 0 Left 0
WINDOW 39 0 0 Left 0
SYMATTR InstName V2
SYMATTR Value -15
SYMBOL res 64 224 R0
SYMATTR InstName R1
SYMATTR Value 10k
SYMBOL res 224 16 R90
WINDOW 0 0 56 VBottom 2
WINDOW 3 32 56 VTop 2
SYMATTR InstName R2
SYMATTR Value 10k
SYMBOL cap 208 240 R90
WINDOW 0 0 32 VBottom 2
WINDOW 3 32 32 VTop 2
SYMATTR InstName C1
SYMATTR Value 30p
SYMBOL cap 16 208 R180
WINDOW 0 24 56 Left 2
WINDOW 3 24 8 Left 2
SYMATTR InstName C3
SYMATTR Value 0.06µ
SYMBOL cap 128 80 R90
WINDOW 0 0 32 VBottom 2
WINDOW 3 32 32 VTop 2
SYMATTR InstName C2
SYMATTR Value 30p
TEXT -72 344 Left 2 !.tran 0 10m 9m 0.1m
